This file added in feature2 branch.
New Line.
